%mem=15Gb
%nproc=8
#PBEPBE/gen scf=maxcycle=200 NMR=GIAO Scrf=(solvent=water)

estrutura 41

-2 1
Pt      -0.0728570000     -0.0960310000      0.0004840000                 
Cl      -2.4481560000     -0.4708350000     -0.3668720000                 
N       -0.3272400000      1.9567890000     -0.3204190000                 
N        1.9727820000      0.2328980000      0.3108290000                 
O        0.5091250000      2.5258840000     -0.9987230000                 
O       -1.2861810000      2.5148340000      0.1725820000                 
O        2.7730350000     -0.5216100000     -0.2031250000                 
O        2.2928530000      1.1800250000      1.0064140000                 
Cl       0.2341820000     -2.4781490000      0.3785600000                 
Cl      -0.4497790000      0.1954000000      2.3400760000                 
Cl       0.3021880000     -0.3893860000     -2.3392800000                 

N     0
S    6   1.00
  12238.3269689590           0.0005600
   4079.44232298633          0.0007700
   1359.81410766211          0.0040600
    453.271369220703         0.0139100
    151.090456406901         0.0529900
     50.3634854689670        0.1695200
S    1   1.00
     16.7878284896557        1.0000000
S    1   1.00
      5.59594282988522       1.0000000
S    1   1.00
      1.86531427662841       1.0000000
S    1   1.00
      0.62177142554280       1.0000000
S    1   1.00
      0.20725714184760       1.0000000
P    4   1.00
     54.1425482486954        0.0039700
     16.6592456149832        0.0195400
      5.12592172768714       0.0997900
      1.57720668544220       0.3284500
P    1   1.00
      0.48529436475145       1.0000000
P    1   1.00
      0.14932134300045       1.0000000
D    1   1.00
      0.47700000000000       1.0000000
D    1   1.00
      0.15026000000000       1.0000000
****
O     0
S    6   1.00
  16178.1182314232           0.0006000
   5392.70607714106          0.0007800
   1797.56869238035          0.0041000
    599.189564126785         0.0138800
    199.729854708928         0.0527700
     66.5766182363094        0.1692400
S    1   1.00
     22.1922060787698        1.0000000
S    1   1.00
      7.39740202625660       1.0000000
S    1   1.00
      2.46580067541887       1.0000000
S    1   1.00
      0.82193355847296       1.0000000
S    1   1.00
      0.27397785282432       1.0000000
P    4   1.00
     73.8543986696091        0.0040200
     22.7244303598797        0.0201300
      6.99213241842453       0.1047000
      2.15142535951524       0.3360500
P    1   1.00
      0.66197703369700       1.0000000
P    1   1.00
      0.20368524113754       1.0000000
D    1   1.00
      0.92880000000000       1.0000000
D    1   1.00
      0.22975000000000       1.0000000
****
Cl     0
S    7   1.00
  77142.8171643825           0.0010600
  28051.9335143209           0.0006400
  10200.7030961167           0.0039600
   3709.34658040607          0.0098300
   1348.85330196584          0.0326900
    490.492109805761         0.0995200
    178.360767202095         0.2655500
S    1   1.00
     64.8584608007618        1.0000000
S    1   1.00
     23.5848948366407        1.0000000
S    1   1.00
      8.57632539514206       1.0000000
S    1   1.00
      3.11866378005166       1.0000000
S    1   1.00
      1.13405955638242       1.0000000
S    1   1.00
      0.41238529322997       1.0000000
S    1   1.00
      0.14995828844726       1.0000000
S    1   1.00
      0.05453028670810       1.0000000
P    5   1.00
    694.985360568515         0.0020000
    231.661786856172         0.0089500
     77.2205956187239        0.0511300
     25.7401985395746        0.2101100
      8.58006617985821       0.4973800
P    1   1.00
      2.86002205995274       1.0000000
P    1   1.00
      0.95334068665091       1.0000000
P    1   1.00
      0.31778022888364       1.0000000
P    1   1.00
      0.10592674296121       1.0000000
P    1   1.00
      0.03530891432040       1.0000000
D    1   1.00
      0.55696000000000       1.0000000
D    1   1.00
      0.15619100000000       1.0000000
****
Pt     0
S    9   1.00
2164481.60896527             0.0123200
1082240.80448263             0.0129700
 541120.402241316            0.0263700
 270560.201120658            0.0090400
 135280.100560329            0.0349800
  67640.0502801646           0.0122200
  33820.0251400823           0.0605200
  16910.0125700411           0.0649300
   8455.00628502057          0.1381900
S    1   1.00
   4227.50314251028          1.0000000
S    1   1.00
   2113.75157125514          1.0000000
S    1   1.00
   1056.87578562757          1.0000000
S    1   1.00
    528.437892813786         1.0000000
S    1   1.00
    264.218946406893         1.0000000
S    1   1.00
    132.109473203446         1.0000000
S    1   1.00
     66.0547366017232        1.0000000
S    1   1.00
     33.0273683008616        1.0000000
S    1   1.00
     16.5136841504308        1.0000000
S    1   1.00
      8.25684207521540       1.0000000
S    1   1.00
      4.12842103760770       1.0000000
S    1   1.00
      2.06421051880385       1.0000000
S    1   1.00
      1.03210525940192       1.0000000
S    1   1.00
      0.51605262970096       1.0000000
S    1   1.00
      0.25802631485048       1.0000000
S    1   1.00
      0.12901315742524       1.0000000
S    1   1.00
      0.06450657871262       1.0000000
P    7   1.00
  32357.9152575654           0.0050200
  14381.2956700291           0.0020200
   6391.68696445736          0.0180700
   2840.74976198105          0.0366200
   1262.55544976936          0.1117200
    561.135755453047         0.2558600
    249.393669090243         0.4260800
P    1   1.00
    110.841630706775         1.0000000
P    1   1.00
     49.2629469807888        1.0000000
P    1   1.00
     21.8946431025728        1.0000000
P    1   1.00
      9.73095249003235       1.0000000
P    1   1.00
      4.32486777334771       1.0000000
P    1   1.00
      1.92216345482120       1.0000000
P    1   1.00
      0.85429486880942       1.0000000
P    1   1.00
      0.37968660835974       1.0000000
P    1   1.00
      0.16874960371544       1.0000000
P    1   1.00
      0.07499982387353       1.0000000
P    1   1.00
      0.03333325505490       1.0000000
D    5   1.00
   1911.90035078584          0.0043300
    764.760140314335         0.0177800
    305.904056125734         0.0897100
    122.361622450294         0.3112300
     48.9446489801175        0.5320600
D    1   1.00
     19.5778595920470        1.0000000
D    1   1.00
      7.83114383681879       1.0000000
D    1   1.00
      3.13245753472752       1.0000000
D    1   1.00
      1.25298301389101       1.0000000
D    1   1.00
      0.50119320555640       1.0000000
D    1   1.00
      0.20047728222256       1.0000000
D    1   1.00
      0.08019091288902       1.0000000
D    1   1.00
      0.03207636515561       1.0000000
F    4   1.00
     82.2896809794193        0.0618700
     29.9235203561525        0.2482300
     10.8812801295100        0.4995600
      3.95682913800363       0.4038000
F    1   1.00
      1.43884695927405       1.0000000
F    1   1.00
      0.52321707609965       1.0000000
G    1   1.00
      2.67000000000000       1.0000000
G    1   1.00
      0.90960000000000       1.0000000
****

